<?xml version="1.0" encoding="UTF-8"?>
<!DOCTYPE network SYSTEM "http://www.matsim.org/files/dtd/network_v2.dtd">
<network>
    <nodes>
        <node id="0" x="-20000" y="0">
            <attributes>
                <attribute name="partition" class="java.lang.Integer">0</attribute>
            </attributes>
        </node>
        <node id="1" x="-15000" y="0">
            <attributes>
                <attribute name="partition" class="java.lang.Integer">0</attribute>
            </attributes>
        </node>
        <node id="2" x="-865" y="5925">
            <attributes>
                <attribute name="partition" class="java.lang.Integer">0</attribute>
            </attributes>
        </node>
        <node id="3" x="-2498" y="4331">
            <attributes>
                <attribute name="partition" class="java.lang.Integer">1</attribute>
            </attributes>
        </node>
        <node id="4" x="-3829" y="3215">
            <attributes>
                <attribute name="partition" class="java.lang.Integer">1</attribute>
            </attributes>
        </node>
        <node id="5" x="-4698" y="1711">
            <attributes>
                <attribute name="partition" class="java.lang.Integer">1</attribute>
            </attributes>
        </node>
        <node id="6" x="-5000" y="0">
            <attributes>
                <attribute name="partition" class="java.lang.Integer">1</attribute>
            </attributes>
        </node>
        <node id="7" x="-4698" y="-1711">
            <attributes>
                <attribute name="partition" class="java.lang.Integer">1</attribute>
            </attributes>
        </node>
        <node id="8" x="-3829" y="-3215">
            <attributes>
                <attribute name="partition" class="java.lang.Integer">1</attribute>
            </attributes>
        </node>
        <node id="9" x="-2498" y="-4331">
            <attributes>
                <attribute name="partition" class="java.lang.Integer">0</attribute>
            </attributes>
        </node>
        <node id="10" x="-865" y="-5925">
            <attributes>
                <attribute name="partition" class="java.lang.Integer">0</attribute>
            </attributes>
        </node>
        <node id="11" x="0" y="0">
            <attributes>
                <attribute name="partition" class="java.lang.Integer">1</attribute>
            </attributes>
        </node>
        <node id="12" x="5000" y="0">
            <attributes>
                <attribute name="partition" class="java.lang.Integer">0</attribute>
            </attributes>
        </node>
        <node id="13" x="5000" y="-10000">
            <attributes>
                <attribute name="partition" class="java.lang.Integer">0</attribute>
            </attributes>
        </node>
        <node id="14" x="-20000" y="-10000">
            <attributes>
                <attribute name="partition" class="java.lang.Integer">0</attribute>
            </attributes>
        </node>
    </nodes>
    <links effectivecellsize="7.5">
        <link id="0" from="0" to="1" length="10000" capacity="36000" freespeed="27.78" permlanes="1">
            <attributes>
                <attribute name="partition" class="java.lang.Integer">0</attribute>
            </attributes>
        </link>
        <link id="1" from="1" to="2" length="10000" capacity="3600" freespeed="27.78" permlanes="1">
            <attributes>
                <attribute name="partition" class="java.lang.Integer">0</attribute>
            </attributes>
        </link>
        <link id="2" from="1" to="3" length="10000" capacity="3600" freespeed="27.78" permlanes="1">
            <attributes>
                <attribute name="partition" class="java.lang.Integer">1</attribute>
            </attributes>
        </link>
        <link id="3" from="1" to="4" length="10000" capacity="3600" freespeed="27.78" permlanes="1">
            <attributes>
                <attribute name="partition" class="java.lang.Integer">1</attribute>
            </attributes>
        </link>
        <link id="4" from="1" to="5" length="10000" capacity="3600" freespeed="27.78" permlanes="1">
            <attributes>
                <attribute name="partition" class="java.lang.Integer">1</attribute>
            </attributes>
        </link>
        <link id="5" from="1" to="6" length="10000" capacity="3600" freespeed="27.78" permlanes="1">
            <attributes>
                <attribute name="partition" class="java.lang.Integer">1</attribute>
            </attributes>
        </link>
        <link id="6" from="1" to="7" length="10000" capacity="3600" freespeed="27.78" permlanes="1">
            <attributes>
                <attribute name="partition" class="java.lang.Integer">1</attribute>
            </attributes>
        </link>
        <link id="7" from="1" to="8" length="10000" capacity="3600" freespeed="27.78" permlanes="1">
            <attributes>
                <attribute name="partition" class="java.lang.Integer">1</attribute>
            </attributes>
        </link>
        <link id="8" from="1" to="9" length="10000" capacity="3600" freespeed="27.78" permlanes="1">
            <attributes>
                <attribute name="partition" class="java.lang.Integer">0</attribute>
            </attributes>
        </link>
        <link id="9" from="1" to="10" length="10000" capacity="3600" freespeed="27.78" permlanes="1">
            <attributes>
                <attribute name="partition" class="java.lang.Integer">0</attribute>
            </attributes>
        </link>
        <link id="10" from="2" to="11" length="5000" capacity="1000" freespeed="27.78" permlanes="1">
            <attributes>
                <attribute name="partition" class="java.lang.Integer">1</attribute>
            </attributes>
        </link>
        <link id="11" from="3" to="11" length="5000" capacity="1000" freespeed="27.78" permlanes="1">
            <attributes>
                <attribute name="partition" class="java.lang.Integer">1</attribute>
            </attributes>
        </link>
        <link id="12" from="4" to="11" length="5000" capacity="1000" freespeed="27.78" permlanes="1">
            <attributes>
                <attribute name="partition" class="java.lang.Integer">1</attribute>
            </attributes>
        </link>
        <link id="13" from="5" to="11" length="5000" capacity="1000" freespeed="27.78" permlanes="1">
            <attributes>
                <attribute name="partition" class="java.lang.Integer">1</attribute>
            </attributes>
        </link>
        <link id="14" from="6" to="11" length="5000" capacity="1000" freespeed="27.78" permlanes="1">
            <attributes>
                <attribute name="partition" class="java.lang.Integer">1</attribute>
            </attributes>
        </link>
        <link id="15" from="7" to="11" length="5000" capacity="1000" freespeed="27.78" permlanes="1">
            <attributes>
                <attribute name="partition" class="java.lang.Integer">1</attribute>
            </attributes>
        </link>
        <link id="16" from="8" to="11" length="5000" capacity="1000" freespeed="27.78" permlanes="1">
            <attributes>
                <attribute name="partition" class="java.lang.Integer">1</attribute>
            </attributes>
        </link>
        <link id="17" from="9" to="11" length="5000" capacity="1000" freespeed="27.78" permlanes="1">
            <attributes>
                <attribute name="partition" class="java.lang.Integer">1</attribute>
            </attributes>
        </link>
        <link id="18" from="10" to="11" length="5000" capacity="1000" freespeed="27.78" permlanes="1">
            <attributes>
                <attribute name="partition" class="java.lang.Integer">1</attribute>
            </attributes>
        </link>
        <link id="19" from="11" to="12" length="10000" capacity="36000" freespeed="27.78" permlanes="1">
            <attributes>
                <attribute name="partition" class="java.lang.Integer">0</attribute>
            </attributes>
        </link>
        <link id="20" from="12" to="13" length="10000" capacity="36000" freespeed="27.78" permlanes="1">
            <attributes>
                <attribute name="partition" class="java.lang.Integer">0</attribute>
            </attributes>
        </link>
        <link id="21" from="13" to="14" length="35000" capacity="36000" freespeed="27.78" permlanes="1">
            <attributes>
                <attribute name="partition" class="java.lang.Integer">0</attribute>
            </attributes>
        </link>
        <link id="22" from="14" to="0" length="10000" capacity="36000" freespeed="27.78" permlanes="1">
            <attributes>
                <attribute name="partition" class="java.lang.Integer">0</attribute>
            </attributes>
        </link>
    </links>
</network>